*SPEF "IEEE 1481-1998"
*DESIGN "IIR_filter"
*DATE "Sun Nov  8 23:50:55 2020"
*VENDOR "Cadence Design Systems, Inc."
*PROGRAM "Innovus"
*VERSION "17.11-s080_1"
*DESIGN_FLOW "COUPLING C" "PIN_CAP NONE" "NAME_SCOPE LOCAL"
*DIVIDER /
*DELIMITER :
*BUS_DELIMITER []
*T_UNIT 1 NS
*C_UNIT 1 PF
*R_UNIT 1 OHM
*L_UNIT 1 HENRY

// MMMC spef file for corner 'my_rc'

*NAME_MAP

*1 CLK
*2 RST_n
*3 DIN[9]
*4 DIN[8]
*5 DIN[7]
*6 DIN[6]
*7 DIN[5]
*8 DIN[4]
*9 DIN[3]
*10 DIN[2]
*11 DIN[1]
*12 DIN[0]
*13 VIN
*14 a0[9]
*15 a0[8]
*16 a0[7]
*17 a0[6]
*18 a0[5]
*19 a0[4]
*20 a0[3]
*21 a0[2]
*22 a0[1]
*23 a0[0]
*24 a1[9]
*25 a1[8]
*26 a1[7]
*27 a1[6]
*28 a1[5]
*29 a1[4]
*30 a1[3]
*31 a1[2]
*32 a1[1]
*33 a1[0]
*34 a2[9]
*35 a2[8]
*36 a2[7]
*37 a2[6]
*38 a2[5]
*39 a2[4]
*40 a2[3]
*41 a2[2]
*42 a2[1]
*43 a2[0]
*44 b0[9]
*45 b0[8]
*46 b0[7]
*47 b0[6]
*48 b0[5]
*49 b0[4]
*50 b0[3]
*51 b0[2]
*52 b0[1]
*53 b0[0]
*54 b1[9]
*55 b1[8]
*56 b1[7]
*57 b1[6]
*58 b1[5]
*59 b1[4]
*60 b1[3]
*61 b1[2]
*62 b1[1]
*63 b1[0]
*64 b2[9]
*65 b2[8]
*66 b2[7]
*67 b2[6]
*68 b2[5]
*69 b2[4]
*70 b2[3]
*71 b2[2]
*72 b2[1]
*73 b2[0]
*74 DOUT[9]
*75 DOUT[8]
*76 DOUT[7]
*77 DOUT[6]
*78 DOUT[5]
*79 DOUT[4]
*80 DOUT[3]
*81 DOUT[2]
*82 DOUT[1]
*83 DOUT[0]
*84 VOUT
*85 FE_RN_1_0
*86 FE_RN_0_0
*87 VIN_samp
*88 n2
*89 DIN_reg_n12
*90 DIN_reg_n11
*91 DIN_reg_n10
*92 DIN_reg_n9
*93 DIN_reg_n8
*94 DIN_reg_n7
*95 DIN_reg_n6
*96 DIN_reg_n5
*97 DIN_reg_n4
*98 DIN_reg_n3
*99 DIN_reg_n2
*100 DIN_reg_n1
*101 DIN_reg_n26
*102 DIN_reg_n25
*103 DIN_reg_n24
*104 DIN_reg_n23
*105 DIN_reg_n22
*106 DIN_reg_n21
*107 DIN_reg_n20
*108 DIN_reg_n19
*109 DIN_reg_n18
*110 DIN_reg_n17
*111 DIN_reg_n16
*112 DIN_reg_n14
*113 DIN_reg_n13
*114 VIN_reg_n4
*115 VIN_reg_n3
*116 VIN_reg_n1
*117 sum_a_add_16_n1
*118 sum_b_add_16_n1
*119 sum_b1b2_add_16_n2
*120 mult_a2_R_0_
*121 mult_a2_R_23_
*122 mult_a2_mult_15_n552
*123 mult_a2_mult_15_n551
*124 mult_a2_mult_15_n550
*125 mult_a2_mult_15_n549
*126 mult_a2_mult_15_n548
*127 mult_a2_mult_15_n547
*128 mult_a2_mult_15_n546
*129 mult_a2_mult_15_n545
*130 mult_a2_mult_15_n544
*131 mult_a2_mult_15_n543
*132 mult_a2_mult_15_n542
*133 mult_a2_mult_15_n541
*134 mult_a2_mult_15_n540
*135 mult_a2_mult_15_n539
*136 mult_a2_mult_15_n538
*137 mult_a2_mult_15_n537
*138 mult_a2_mult_15_n536
*139 mult_a2_mult_15_n535
*140 mult_a2_mult_15_n534
*141 mult_a2_mult_15_n533
*142 mult_a2_mult_15_n532
*143 mult_a2_mult_15_n531
*144 mult_a2_mult_15_n530
*145 mult_a2_mult_15_n529
*146 mult_a2_mult_15_n528
*147 mult_a2_mult_15_n527
*148 mult_a2_mult_15_n526
*149 mult_a2_mult_15_n525
*150 mult_a2_mult_15_n524
*151 mult_a2_mult_15_n523
*152 mult_a2_mult_15_n522
*153 mult_a2_mult_15_n521
*154 mult_a2_mult_15_n520
*155 mult_a2_mult_15_n519
*156 mult_a2_mult_15_n518
*157 mult_a2_mult_15_n517
*158 mult_a2_mult_15_n516
*159 mult_a2_mult_15_n515
*160 mult_a2_mult_15_n514
*161 mult_a2_mult_15_n513
*162 mult_a2_mult_15_n512
*163 mult_a2_mult_15_n511
*164 mult_a2_mult_15_n510
*165 mult_a2_mult_15_n509
*166 mult_a2_mult_15_n508
*167 mult_a2_mult_15_n507
*168 mult_a2_mult_15_n506
*169 mult_a2_mult_15_n505
*170 mult_a2_mult_15_n504
*171 mult_a2_mult_15_n503
*172 mult_a2_mult_15_n502
*173 mult_a2_mult_15_n501
*174 mult_a2_mult_15_n500
*175 mult_a2_mult_15_n499
*176 mult_a2_mult_15_n498
*177 mult_a2_mult_15_n497
*178 mult_a2_mult_15_n496
*179 mult_a2_mult_15_n495
*180 mult_a2_mult_15_n494
*181 mult_a2_mult_15_n493
*182 mult_a2_mult_15_n492
*183 mult_a2_mult_15_n491
*184 mult_a2_mult_15_n490
*185 mult_a2_mult_15_n489
*186 mult_a2_mult_15_n488
*187 mult_a2_mult_15_n487
*188 mult_a2_mult_15_n486
*189 mult_a2_mult_15_n485
*190 mult_a2_mult_15_n484
*191 mult_a2_mult_15_n483
*192 mult_a2_mult_15_n482
*193 mult_a2_mult_15_n481
*194 mult_a2_mult_15_n480
*195 mult_a2_mult_15_n479
*196 mult_a2_mult_15_n478
*197 mult_a2_mult_15_n477
*198 mult_a2_mult_15_n476
*199 mult_a2_mult_15_n475
*200 mult_a2_mult_15_n474
*201 mult_a2_mult_15_n473
*202 mult_a2_mult_15_n472
*203 mult_a2_mult_15_n471
*204 mult_a2_mult_15_n470
*205 mult_a2_mult_15_n469
*206 mult_a2_mult_15_n468
*207 mult_a2_mult_15_n467
*208 mult_a2_mult_15_n466
*209 mult_a2_mult_15_n465
*210 mult_a2_mult_15_n464
*211 mult_a2_mult_15_n463
*212 mult_a2_mult_15_n462
*213 mult_a2_mult_15_n461
*214 mult_a2_mult_15_n460
*215 mult_a2_mult_15_n459
*216 mult_a2_mult_15_n458
*217 mult_a2_mult_15_n457
*218 mult_a2_mult_15_n456
*219 mult_a2_mult_15_n455
*220 mult_a2_mult_15_n454
*221 mult_a2_mult_15_n453
*222 mult_a2_mult_15_n452
*223 mult_a2_mult_15_n451
*224 mult_a2_mult_15_n450
*225 mult_a2_mult_15_n449
*226 mult_a2_mult_15_n448
*227 mult_a2_mult_15_n447
*228 mult_a2_mult_15_n446
*229 mult_a2_mult_15_n445
*230 mult_a2_mult_15_n444
*231 mult_a2_mult_15_n443
*232 mult_a2_mult_15_n442
*233 mult_a2_mult_15_n441
*234 mult_a2_mult_15_n440
*235 mult_a2_mult_15_n439
*236 mult_a2_mult_15_n438
*237 mult_a2_mult_15_n437
*238 mult_a2_mult_15_n436
*239 mult_a2_mult_15_n435
*240 mult_a2_mult_15_n434
*241 mult_a2_mult_15_n433
*242 mult_a2_mult_15_n432
*243 mult_a2_mult_15_n431
*244 mult_a2_mult_15_n430
*245 mult_a2_mult_15_n429
*246 mult_a2_mult_15_n428
*247 mult_a2_mult_15_n427
*248 mult_a2_mult_15_n426
*249 mult_a2_mult_15_n425
*250 mult_a2_mult_15_n424
*251 mult_a2_mult_15_n423
*252 mult_a2_mult_15_n422
*253 mult_a2_mult_15_n421
*254 mult_a2_mult_15_n420
*255 mult_a2_mult_15_n419
*256 mult_a2_mult_15_n418
*257 mult_a2_mult_15_n417
*258 mult_a2_mult_15_n416
*259 mult_a2_mult_15_n415
*260 mult_a2_mult_15_n414
*261 mult_a2_mult_15_n228
*262 mult_a2_mult_15_n227
*263 mult_a2_mult_15_n226
*264 mult_a2_mult_15_n225
*265 mult_a2_mult_15_n224
*266 mult_a2_mult_15_n223
*267 mult_a2_mult_15_n222
*268 mult_a2_mult_15_n221
*269 mult_a2_mult_15_n220
*270 mult_a2_mult_15_n217
*271 mult_a2_mult_15_n216
*272 mult_a2_mult_15_n215
*273 mult_a2_mult_15_n214
*274 mult_a2_mult_15_n213
*275 mult_a2_mult_15_n212
*276 mult_a2_mult_15_n211
*277 mult_a2_mult_15_n210
*278 mult_a2_mult_15_n209
*279 mult_a2_mult_15_n208
*280 mult_a2_mult_15_n206
*281 mult_a2_mult_15_n205
*282 mult_a2_mult_15_n204
*283 mult_a2_mult_15_n203
*284 mult_a2_mult_15_n202
*285 mult_a2_mult_15_n201
*286 mult_a2_mult_15_n200
*287 mult_a2_mult_15_n199
*288 mult_a2_mult_15_n197
*289 mult_a2_mult_15_n196
*290 mult_a2_mult_15_n194
*291 mult_a2_mult_15_n193
*292 mult_a2_mult_15_n192
*293 mult_a2_mult_15_n191
*294 mult_a2_mult_15_n190
*295 mult_a2_mult_15_n189
*296 mult_a2_mult_15_n188
*297 mult_a2_mult_15_n187
*298 mult_a2_mult_15_n186
*299 mult_a2_mult_15_n185
*300 mult_a2_mult_15_n184
*301 mult_a2_mult_15_n182
*302 mult_a2_mult_15_n181
*303 mult_a2_mult_15_n180
*304 mult_a2_mult_15_n179
*305 mult_a2_mult_15_n177
*306 mult_a2_mult_15_n176
*307 mult_a2_mult_15_n175
*308 mult_a2_mult_15_n174
*309 mult_a2_mult_15_n173
*310 mult_a2_mult_15_n172
*311 mult_a2_mult_15_n170
*312 mult_a2_mult_15_n169
*313 mult_a2_mult_15_n168
*314 mult_a2_mult_15_n167
*315 mult_a2_mult_15_n166
*316 mult_a2_mult_15_n165
*317 mult_a2_mult_15_n164
*318 mult_a2_mult_15_n163
*319 mult_a2_mult_15_n162
*320 mult_a2_mult_15_n161
*321 mult_a2_mult_15_n160
*322 mult_a2_mult_15_n156
*323 mult_a2_mult_15_n155
*324 mult_a2_mult_15_n154
*325 mult_a2_mult_15_n153
*326 mult_a2_mult_15_n134
*327 mult_a2_mult_15_n133
*328 mult_a2_mult_15_n132
*329 mult_a2_mult_15_n131
*330 mult_a2_mult_15_n130
*331 mult_a2_mult_15_n129
*332 mult_a2_mult_15_n128
*333 mult_a2_mult_15_n127
*334 mult_a2_mult_15_n126
*335 mult_a2_mult_15_n125
*336 mult_a2_mult_15_n124
*337 mult_a2_mult_15_n123
*338 mult_a2_mult_15_n122
*339 mult_a2_mult_15_n121
*340 mult_a2_mult_15_n120
*341 mult_a2_mult_15_n119
*342 mult_a2_mult_15_n118
*343 mult_a2_mult_15_n117
*344 mult_a2_mult_15_n116
*345 mult_a2_mult_15_n115
*346 mult_a2_mult_15_n114
*347 mult_a2_mult_15_n113
*348 mult_a2_mult_15_n112
*349 mult_a2_mult_15_n111
*350 mult_a2_mult_15_n110
*351 mult_a2_mult_15_n109
*352 mult_a2_mult_15_n108
*353 mult_a2_mult_15_n107
*354 mult_a2_mult_15_n106
*355 mult_a2_mult_15_n105
*356 mult_a2_mult_15_n104
*357 mult_a2_mult_15_n103
*358 mult_a2_mult_15_n102
*359 mult_a2_mult_15_n101
*360 mult_a2_mult_15_n100
*361 mult_a2_mult_15_n99
*362 mult_a2_mult_15_n98
*363 mult_a2_mult_15_n97
*364 mult_a2_mult_15_n96
*365 mult_a2_mult_15_n95
*366 mult_a2_mult_15_n94
*367 mult_a2_mult_15_n93
*368 mult_a2_mult_15_n92
*369 mult_a2_mult_15_n91
*370 mult_a2_mult_15_n90
*371 mult_a2_mult_15_n89
*372 mult_a2_mult_15_n88
*373 mult_a2_mult_15_n87
*374 mult_a2_mult_15_n86
*375 mult_a2_mult_15_n85
*376 mult_a2_mult_15_n84
*377 mult_a2_mult_15_n83
*378 mult_a2_mult_15_n82
*379 mult_a2_mult_15_n81
*380 mult_a2_mult_15_n80
*381 mult_a2_mult_15_n79
*382 mult_a2_mult_15_n78
*383 mult_a2_mult_15_n77
*384 mult_a2_mult_15_n76
*385 mult_a2_mult_15_n75
*386 mult_a2_mult_15_n73
*387 mult_a2_mult_15_n72
*388 mult_a2_mult_15_n71
*389 mult_a2_mult_15_n70
*390 mult_a2_mult_15_n69
*391 mult_a2_mult_15_n68
*392 mult_a2_mult_15_n67
*393 mult_a2_mult_15_n66
*394 mult_a2_mult_15_n65
*395 mult_a2_mult_15_n64
*396 mult_a2_mult_15_n63
*397 mult_a2_mult_15_n62
*398 mult_a2_mult_15_n61
*399 mult_a2_mult_15_n60
*400 mult_a2_mult_15_n59
*401 mult_a2_mult_15_n58
*402 mult_a2_mult_15_n57
*403 mult_a2_mult_15_n55
*404 mult_a2_mult_15_n54
*405 mult_a2_mult_15_n53
*406 mult_a2_mult_15_n52
*407 mult_a2_mult_15_n51
*408 mult_a2_mult_15_n50
*409 mult_a2_mult_15_n49
*410 mult_a2_mult_15_n48
*411 mult_a2_mult_15_n47
*412 mult_a2_mult_15_n46
*413 mult_a2_mult_15_n45
*414 mult_a2_mult_15_n44
*415 mult_a2_mult_15_n43
*416 mult_a2_mult_15_n41
*417 mult_a2_mult_15_n40
*418 mult_a2_mult_15_n39
*419 mult_a2_mult_15_n38
*420 mult_a2_mult_15_n37
*421 mult_a2_mult_15_n36
*422 mult_a2_mult_15_n35
*423 mult_a2_mult_15_n34
*424 mult_a2_mult_15_n33
*425 mult_a2_mult_15_n31
*426 mult_a2_mult_15_n30
*427 mult_a2_mult_15_n29
*428 mult_a2_mult_15_n28
*429 mult_a2_mult_15_n27
*430 mult_a2_mult_15_n17
*431 mult_a2_mult_15_n16
*432 mult_a2_mult_15_n15
*433 mult_a2_mult_15_n14
*434 mult_a2_mult_15_n13
*435 mult_a2_mult_15_n12
*436 mult_a2_mult_15_n11
*437 mult_a2_mult_15_n10
*438 mult_a2_mult_15_n9
*439 mult_a2_mult_15_n8
*440 mult_a2_mult_15_n7
*441 mult_a2_mult_15_n6
*442 mult_a2_mult_15_n5
*443 mult_b0_R_0_
*444 mult_b0_R_23_
*445 mult_b0_mult_15_n552
*446 mult_b0_mult_15_n551
*447 mult_b0_mult_15_n550
*448 mult_b0_mult_15_n549
*449 mult_b0_mult_15_n548
*450 mult_b0_mult_15_n547
*451 mult_b0_mult_15_n546
*452 mult_b0_mult_15_n545
*453 mult_b0_mult_15_n544
*454 mult_b0_mult_15_n543
*455 mult_b0_mult_15_n542
*456 mult_b0_mult_15_n541
*457 mult_b0_mult_15_n540
*458 mult_b0_mult_15_n539
*459 mult_b0_mult_15_n538
*460 mult_b0_mult_15_n537
*461 mult_b0_mult_15_n536
*462 mult_b0_mult_15_n535
*463 mult_b0_mult_15_n534
*464 mult_b0_mult_15_n533
*465 mult_b0_mult_15_n532
*466 mult_b0_mult_15_n531
*467 mult_b0_mult_15_n530
*468 mult_b0_mult_15_n529
*469 mult_b0_mult_15_n528
*470 mult_b0_mult_15_n527
*471 mult_b0_mult_15_n526
*472 mult_b0_mult_15_n525
*473 mult_b0_mult_15_n524
*474 mult_b0_mult_15_n523
*475 mult_b0_mult_15_n522
*476 mult_b0_mult_15_n521
*477 mult_b0_mult_15_n520
*478 mult_b0_mult_15_n519
*479 mult_b0_mult_15_n518
*480 mult_b0_mult_15_n517
*481 mult_b0_mult_15_n516
*482 mult_b0_mult_15_n515
*483 mult_b0_mult_15_n514
*484 mult_b0_mult_15_n513
*485 mult_b0_mult_15_n512
*486 mult_b0_mult_15_n511
*487 mult_b0_mult_15_n510
*488 mult_b0_mult_15_n509
*489 mult_b0_mult_15_n508
*490 mult_b0_mult_15_n507
*491 mult_b0_mult_15_n506
*492 mult_b0_mult_15_n505
*493 mult_b0_mult_15_n504
*494 mult_b0_mult_15_n503
*495 mult_b0_mult_15_n502
*496 mult_b0_mult_15_n501
*497 mult_b0_mult_15_n500
*498 mult_b0_mult_15_n499
*499 mult_b0_mult_15_n498
*500 mult_b0_mult_15_n497
*501 mult_b0_mult_15_n496
*502 mult_b0_mult_15_n495
*503 mult_b0_mult_15_n494
*504 mult_b0_mult_15_n493
*505 mult_b0_mult_15_n492
*506 mult_b0_mult_15_n491
*507 mult_b0_mult_15_n490
*508 mult_b0_mult_15_n489
*509 mult_b0_mult_15_n488
*510 mult_b0_mult_15_n487
*511 mult_b0_mult_15_n486
*512 mult_b0_mult_15_n485
*513 mult_b0_mult_15_n484
*514 mult_b0_mult_15_n483
*515 mult_b0_mult_15_n482
*516 mult_b0_mult_15_n481
*517 mult_b0_mult_15_n480
*518 mult_b0_mult_15_n479
*519 mult_b0_mult_15_n478
*520 mult_b0_mult_15_n477
*521 mult_b0_mult_15_n476
*522 mult_b0_mult_15_n475
*523 mult_b0_mult_15_n474
*524 mult_b0_mult_15_n473
*525 mult_b0_mult_15_n472
*526 mult_b0_mult_15_n471
*527 mult_b0_mult_15_n470
*528 mult_b0_mult_15_n469
*529 mult_b0_mult_15_n468
*530 mult_b0_mult_15_n467
*531 mult_b0_mult_15_n466
*532 mult_b0_mult_15_n465
*533 mult_b0_mult_15_n464
*534 mult_b0_mult_15_n463
*535 mult_b0_mult_15_n462
*536 mult_b0_mult_15_n461
*537 mult_b0_mult_15_n460
*538 mult_b0_mult_15_n459
*539 mult_b0_mult_15_n458
*540 mult_b0_mult_15_n457
*541 mult_b0_mult_15_n456
*542 mult_b0_mult_15_n455
*543 mult_b0_mult_15_n454
*544 mult_b0_mult_15_n453
*545 mult_b0_mult_15_n452
*546 mult_b0_mult_15_n451
*547 mult_b0_mult_15_n450
*548 mult_b0_mult_15_n449
*549 mult_b0_mult_15_n448
*550 mult_b0_mult_15_n447
*551 mult_b0_mult_15_n446
*552 mult_b0_mult_15_n445
*553 mult_b0_mult_15_n444
*554 mult_b0_mult_15_n443
*555 mult_b0_mult_15_n442
*556 mult_b0_mult_15_n441
*557 mult_b0_mult_15_n440
*558 mult_b0_mult_15_n439
*559 mult_b0_mult_15_n438
*560 mult_b0_mult_15_n437
*561 mult_b0_mult_15_n436
*562 mult_b0_mult_15_n435
*563 mult_b0_mult_15_n434
*564 mult_b0_mult_15_n433
*565 mult_b0_mult_15_n432
*566 mult_b0_mult_15_n431
*567 mult_b0_mult_15_n430
*568 mult_b0_mult_15_n429
*569 mult_b0_mult_15_n428
*570 mult_b0_mult_15_n427
*571 mult_b0_mult_15_n426
*572 mult_b0_mult_15_n425
*573 mult_b0_mult_15_n424
*574 mult_b0_mult_15_n423
*575 mult_b0_mult_15_n422
*576 mult_b0_mult_15_n421
*577 mult_b0_mult_15_n420
*578 mult_b0_mult_15_n419
*579 mult_b0_mult_15_n418
*580 mult_b0_mult_15_n417
*581 mult_b0_mult_15_n416
*582 mult_b0_mult_15_n415
*583 mult_b0_mult_15_n414
*584 mult_b0_mult_15_n228
*585 mult_b0_mult_15_n227
*586 mult_b0_mult_15_n226
*587 mult_b0_mult_15_n225
*588 mult_b0_mult_15_n224
*589 mult_b0_mult_15_n223
*590 mult_b0_mult_15_n222
*591 mult_b0_mult_15_n221
*592 mult_b0_mult_15_n220
*593 mult_b0_mult_15_n217
*594 mult_b0_mult_15_n216
*595 mult_b0_mult_15_n215
*596 mult_b0_mult_15_n214
*597 mult_b0_mult_15_n213
*598 mult_b0_mult_15_n212
*599 mult_b0_mult_15_n211
*600 mult_b0_mult_15_n210
*601 mult_b0_mult_15_n209
*602 mult_b0_mult_15_n208
*603 mult_b0_mult_15_n206
*604 mult_b0_mult_15_n205
*605 mult_b0_mult_15_n204
*606 mult_b0_mult_15_n203
*607 mult_b0_mult_15_n202
*608 mult_b0_mult_15_n201
*609 mult_b0_mult_15_n200
*610 mult_b0_mult_15_n199
*611 mult_b0_mult_15_n197
*612 mult_b0_mult_15_n196
*613 mult_b0_mult_15_n194
*614 mult_b0_mult_15_n193
*615 mult_b0_mult_15_n192
*616 mult_b0_mult_15_n191
*617 mult_b0_mult_15_n190
*618 mult_b0_mult_15_n189
*619 mult_b0_mult_15_n188
*620 mult_b0_mult_15_n187
*621 mult_b0_mult_15_n186
*622 mult_b0_mult_15_n185
*623 mult_b0_mult_15_n184
*624 mult_b0_mult_15_n182
*625 mult_b0_mult_15_n181
*626 mult_b0_mult_15_n180
*627 mult_b0_mult_15_n179
*628 mult_b0_mult_15_n177
*629 mult_b0_mult_15_n176
*630 mult_b0_mult_15_n175
*631 mult_b0_mult_15_n174
*632 mult_b0_mult_15_n173
*633 mult_b0_mult_15_n172
*634 mult_b0_mult_15_n170
*635 mult_b0_mult_15_n169
*636 mult_b0_mult_15_n168
*637 mult_b0_mult_15_n167
*638 mult_b0_mult_15_n166
*639 mult_b0_mult_15_n165
*640 mult_b0_mult_15_n164
*641 mult_b0_mult_15_n163
*642 mult_b0_mult_15_n162
*643 mult_b0_mult_15_n161
*644 mult_b0_mult_15_n160
*645 mult_b0_mult_15_n156
*646 mult_b0_mult_15_n155
*647 mult_b0_mult_15_n154
*648 mult_b0_mult_15_n153
*649 mult_b0_mult_15_n134
*650 mult_b0_mult_15_n133
*651 mult_b0_mult_15_n132
*652 mult_b0_mult_15_n131
*653 mult_b0_mult_15_n130
*654 mult_b0_mult_15_n129
*655 mult_b0_mult_15_n128
*656 mult_b0_mult_15_n127
*657 mult_b0_mult_15_n126
*658 mult_b0_mult_15_n125
*659 mult_b0_mult_15_n124
*660 mult_b0_mult_15_n123
*661 mult_b0_mult_15_n122
*662 mult_b0_mult_15_n121
*663 mult_b0_mult_15_n120
*664 mult_b0_mult_15_n119
*665 mult_b0_mult_15_n118
*666 mult_b0_mult_15_n117
*667 mult_b0_mult_15_n116
*668 mult_b0_mult_15_n115
*669 mult_b0_mult_15_n114
*670 mult_b0_mult_15_n113
*671 mult_b0_mult_15_n112
*672 mult_b0_mult_15_n111
*673 mult_b0_mult_15_n110
*674 mult_b0_mult_15_n109
*675 mult_b0_mult_15_n108
*676 mult_b0_mult_15_n107
*677 mult_b0_mult_15_n106
*678 mult_b0_mult_15_n105
*679 mult_b0_mult_15_n104
*680 mult_b0_mult_15_n103
*681 mult_b0_mult_15_n102
*682 mult_b0_mult_15_n101
*683 mult_b0_mult_15_n100
*684 mult_b0_mult_15_n99
*685 mult_b0_mult_15_n98
*686 mult_b0_mult_15_n97
*687 mult_b0_mult_15_n96
*688 mult_b0_mult_15_n95
*689 mult_b0_mult_15_n94
*690 mult_b0_mult_15_n93
*691 mult_b0_mult_15_n92
*692 mult_b0_mult_15_n91
*693 mult_b0_mult_15_n90
*694 mult_b0_mult_15_n89
*695 mult_b0_mult_15_n88
*696 mult_b0_mult_15_n87
*697 mult_b0_mult_15_n86
*698 mult_b0_mult_15_n85
*699 mult_b0_mult_15_n84
*700 mult_b0_mult_15_n83
*701 mult_b0_mult_15_n82
*702 mult_b0_mult_15_n81
*703 mult_b0_mult_15_n80
*704 mult_b0_mult_15_n79
*705 mult_b0_mult_15_n78
*706 mult_b0_mult_15_n77
*707 mult_b0_mult_15_n76
*708 mult_b0_mult_15_n75
*709 mult_b0_mult_15_n73
*710 mult_b0_mult_15_n72
*711 mult_b0_mult_15_n71
*712 mult_b0_mult_15_n70
*713 mult_b0_mult_15_n69
*714 mult_b0_mult_15_n68
*715 mult_b0_mult_15_n67
*716 mult_b0_mult_15_n66
*717 mult_b0_mult_15_n65
*718 mult_b0_mult_15_n64
*719 mult_b0_mult_15_n63
*720 mult_b0_mult_15_n62
*721 mult_b0_mult_15_n61
*722 mult_b0_mult_15_n60
*723 mult_b0_mult_15_n59
*724 mult_b0_mult_15_n58
*725 mult_b0_mult_15_n57
*726 mult_b0_mult_15_n55
*727 mult_b0_mult_15_n54
*728 mult_b0_mult_15_n53
*729 mult_b0_mult_15_n52
*730 mult_b0_mult_15_n51
*731 mult_b0_mult_15_n50
*732 mult_b0_mult_15_n49
*733 mult_b0_mult_15_n48
*734 mult_b0_mult_15_n47
*735 mult_b0_mult_15_n46
*736 mult_b0_mult_15_n45
*737 mult_b0_mult_15_n44
*738 mult_b0_mult_15_n43
*739 mult_b0_mult_15_n41
*740 mult_b0_mult_15_n40
*741 mult_b0_mult_15_n39
*742 mult_b0_mult_15_n38
*743 mult_b0_mult_15_n37
*744 mult_b0_mult_15_n36
*745 mult_b0_mult_15_n35
*746 mult_b0_mult_15_n34
*747 mult_b0_mult_15_n33
*748 mult_b0_mult_15_n31
*749 mult_b0_mult_15_n30
*750 mult_b0_mult_15_n29
*751 mult_b0_mult_15_n28
*752 mult_b0_mult_15_n27
*753 mult_b0_mult_15_n17
*754 mult_b0_mult_15_n16
*755 mult_b0_mult_15_n15
*756 mult_b0_mult_15_n14
*757 mult_b0_mult_15_n13
*758 mult_b0_mult_15_n12
*759 mult_b0_mult_15_n11
*760 mult_b0_mult_15_n10
*761 mult_b0_mult_15_n9
*762 mult_b0_mult_15_n8
*763 mult_b0_mult_15_n7
*764 mult_b0_mult_15_n6
*765 mult_b0_mult_15_n5
*766 mult_b1_R_0_
*767 mult_b1_R_23_
*768 mult_b1_mult_15_n552
*769 mult_b1_mult_15_n551
*770 mult_b1_mult_15_n550
*771 mult_b1_mult_15_n549
*772 mult_b1_mult_15_n548
*773 mult_b1_mult_15_n547
*774 mult_b1_mult_15_n546
*775 mult_b1_mult_15_n545
*776 mult_b1_mult_15_n544
*777 mult_b1_mult_15_n543
*778 mult_b1_mult_15_n542
*779 mult_b1_mult_15_n541
*780 mult_b1_mult_15_n540
*781 mult_b1_mult_15_n539
*782 mult_b1_mult_15_n538
*783 mult_b1_mult_15_n537
*784 mult_b1_mult_15_n536
*785 mult_b1_mult_15_n535
*786 mult_b1_mult_15_n534
*787 mult_b1_mult_15_n533
*788 mult_b1_mult_15_n532
*789 mult_b1_mult_15_n531
*790 mult_b1_mult_15_n530
*791 mult_b1_mult_15_n529
*792 mult_b1_mult_15_n528
*793 mult_b1_mult_15_n527
*794 mult_b1_mult_15_n526
*795 mult_b1_mult_15_n525
*796 mult_b1_mult_15_n524
*797 mult_b1_mult_15_n523
*798 mult_b1_mult_15_n522
*799 mult_b1_mult_15_n521
*800 mult_b1_mult_15_n520
*801 mult_b1_mult_15_n519
*802 mult_b1_mult_15_n518
*803 mult_b1_mult_15_n517
*804 mult_b1_mult_15_n516
*805 mult_b1_mult_15_n515
*806 mult_b1_mult_15_n514
*807 mult_b1_mult_15_n513
*808 mult_b1_mult_15_n512
*809 mult_b1_mult_15_n511
*810 mult_b1_mult_15_n510
*811 mult_b1_mult_15_n509
*812 mult_b1_mult_15_n508
*813 mult_b1_mult_15_n507
*814 mult_b1_mult_15_n506
*815 mult_b1_mult_15_n505
*816 mult_b1_mult_15_n504
*817 mult_b1_mult_15_n503
*818 mult_b1_mult_15_n502
*819 mult_b1_mult_15_n501
*820 mult_b1_mult_15_n500
*821 mult_b1_mult_15_n499
*822 mult_b1_mult_15_n498
*823 mult_b1_mult_15_n497
*824 mult_b1_mult_15_n496
*825 mult_b1_mult_15_n495
*826 mult_b1_mult_15_n494
*827 mult_b1_mult_15_n493
*828 mult_b1_mult_15_n492
*829 mult_b1_mult_15_n491
*830 mult_b1_mult_15_n490
*831 mult_b1_mult_15_n489
*832 mult_b1_mult_15_n488
*833 mult_b1_mult_15_n487
*834 mult_b1_mult_15_n486
*835 mult_b1_mult_15_n485
*836 mult_b1_mult_15_n484
*837 mult_b1_mult_15_n483
*838 mult_b1_mult_15_n482
*839 mult_b1_mult_15_n481
*840 mult_b1_mult_15_n480
*841 mult_b1_mult_15_n479
*842 mult_b1_mult_15_n478
*843 mult_b1_mult_15_n477
*844 mult_b1_mult_15_n476
*845 mult_b1_mult_15_n475
*846 mult_b1_mult_15_n474
*847 mult_b1_mult_15_n473
*848 mult_b1_mult_15_n472
*849 mult_b1_mult_15_n471
*850 mult_b1_mult_15_n470
*851 mult_b1_mult_15_n469
*852 mult_b1_mult_15_n468
*853 mult_b1_mult_15_n467
*854 mult_b1_mult_15_n466
*855 mult_b1_mult_15_n465
*856 mult_b1_mult_15_n464
*857 mult_b1_mult_15_n463
*858 mult_b1_mult_15_n462
*859 mult_b1_mult_15_n461
*860 mult_b1_mult_15_n460
*861 mult_b1_mult_15_n459
*862 mult_b1_mult_15_n458
*863 mult_b1_mult_15_n457
*864 mult_b1_mult_15_n456
*865 mult_b1_mult_15_n455
*866 mult_b1_mult_15_n454
*867 mult_b1_mult_15_n453
*868 mult_b1_mult_15_n452
*869 mult_b1_mult_15_n451
*870 mult_b1_mult_15_n450
*871 mult_b1_mult_15_n449
*872 mult_b1_mult_15_n448
*873 mult_b1_mult_15_n447
*874 mult_b1_mult_15_n446
*875 mult_b1_mult_15_n445
*876 mult_b1_mult_15_n444
*877 mult_b1_mult_15_n443
*878 mult_b1_mult_15_n442
*879 mult_b1_mult_15_n441
*880 mult_b1_mult_15_n440
*881 mult_b1_mult_15_n439
*882 mult_b1_mult_15_n438
*883 mult_b1_mult_15_n437
*884 mult_b1_mult_15_n436
*885 mult_b1_mult_15_n435
*886 mult_b1_mult_15_n434
*887 mult_b1_mult_15_n433
*888 mult_b1_mult_15_n432
*889 mult_b1_mult_15_n431
*890 mult_b1_mult_15_n430
*891 mult_b1_mult_15_n429
*892 mult_b1_mult_15_n428
*893 mult_b1_mult_15_n427
*894 mult_b1_mult_15_n426
*895 mult_b1_mult_15_n425
*896 mult_b1_mult_15_n424
*897 mult_b1_mult_15_n423
*898 mult_b1_mult_15_n422
*899 mult_b1_mult_15_n421
*900 mult_b1_mult_15_n420
*901 mult_b1_mult_15_n419
*902 mult_b1_mult_15_n418
*903 mult_b1_mult_15_n417
*904 mult_b1_mult_15_n416
*905 mult_b1_mult_15_n415
*906 mult_b1_mult_15_n414
*907 mult_b1_mult_15_n228
*908 mult_b1_mult_15_n227
*909 mult_b1_mult_15_n226
*910 mult_b1_mult_15_n225
*911 mult_b1_mult_15_n224
*912 mult_b1_mult_15_n223
*913 mult_b1_mult_15_n222
*914 mult_b1_mult_15_n221
*915 mult_b1_mult_15_n220
*916 mult_b1_mult_15_n217
*917 mult_b1_mult_15_n216
*918 mult_b1_mult_15_n215
*919 mult_b1_mult_15_n214
*920 mult_b1_mult_15_n213
*921 mult_b1_mult_15_n212
*922 mult_b1_mult_15_n211
*923 mult_b1_mult_15_n210
*924 mult_b1_mult_15_n209
*925 mult_b1_mult_15_n208
*926 mult_b1_mult_15_n206
*927 mult_b1_mult_15_n205
*928 mult_b1_mult_15_n204
*929 mult_b1_mult_15_n203
*930 mult_b1_mult_15_n202
*931 mult_b1_mult_15_n201
*932 mult_b1_mult_15_n200
*933 mult_b1_mult_15_n199
*934 mult_b1_mult_15_n197
*935 mult_b1_mult_15_n196
*936 mult_b1_mult_15_n194
*937 mult_b1_mult_15_n193
*938 mult_b1_mult_15_n192
*939 mult_b1_mult_15_n191
*940 mult_b1_mult_15_n190
*941 mult_b1_mult_15_n189
*942 mult_b1_mult_15_n188
*943 mult_b1_mult_15_n187
*944 mult_b1_mult_15_n186
*945 mult_b1_mult_15_n185
*946 mult_b1_mult_15_n184
*947 mult_b1_mult_15_n182
*948 mult_b1_mult_15_n181
*949 mult_b1_mult_15_n180
*950 mult_b1_mult_15_n179
*951 mult_b1_mult_15_n177
*952 mult_b1_mult_15_n176
*953 mult_b1_mult_15_n175
*954 mult_b1_mult_15_n174
*955 mult_b1_mult_15_n173
*956 mult_b1_mult_15_n172
*957 mult_b1_mult_15_n170
*958 mult_b1_mult_15_n169
*959 mult_b1_mult_15_n168
*960 mult_b1_mult_15_n167
*961 mult_b1_mult_15_n166
*962 mult_b1_mult_15_n165
*963 mult_b1_mult_15_n164
*964 mult_b1_mult_15_n163
*965 mult_b1_mult_15_n162
*966 mult_b1_mult_15_n161
*967 mult_b1_mult_15_n160
*968 mult_b1_mult_15_n156
*969 mult_b1_mult_15_n155
*970 mult_b1_mult_15_n154
*971 mult_b1_mult_15_n153
*972 mult_b1_mult_15_n134
*973 mult_b1_mult_15_n133
*974 mult_b1_mult_15_n132
*975 mult_b1_mult_15_n131
*976 mult_b1_mult_15_n130
*977 mult_b1_mult_15_n129
*978 mult_b1_mult_15_n128
*979 mult_b1_mult_15_n127
*980 mult_b1_mult_15_n126
*981 mult_b1_mult_15_n125
*982 mult_b1_mult_15_n124
*983 mult_b1_mult_15_n123
*984 mult_b1_mult_15_n122
*985 mult_b1_mult_15_n121
*986 mult_b1_mult_15_n120
*987 mult_b1_mult_15_n119
*988 mult_b1_mult_15_n118
*989 mult_b1_mult_15_n117
*990 mult_b1_mult_15_n116
*991 mult_b1_mult_15_n115
*992 mult_b1_mult_15_n114
*993 mult_b1_mult_15_n113
*994 mult_b1_mult_15_n112
*995 mult_b1_mult_15_n111
*996 mult_b1_mult_15_n110
*997 mult_b1_mult_15_n109
*998 mult_b1_mult_15_n108
*999 mult_b1_mult_15_n107
*1000 mult_b1_mult_15_n106
*1001 mult_b1_mult_15_n105
*1002 mult_b1_mult_15_n104
*1003 mult_b1_mult_15_n103
*1004 mult_b1_mult_15_n102
*1005 mult_b1_mult_15_n101
*1006 mult_b1_mult_15_n100
*1007 mult_b1_mult_15_n99
*1008 mult_b1_mult_15_n98
*1009 mult_b1_mult_15_n97
*1010 mult_b1_mult_15_n96
*1011 mult_b1_mult_15_n95
*1012 mult_b1_mult_15_n94
*1013 mult_b1_mult_15_n93
*1014 mult_b1_mult_15_n92
*1015 mult_b1_mult_15_n91
*1016 mult_b1_mult_15_n90
*1017 mult_b1_mult_15_n89
*1018 mult_b1_mult_15_n88
*1019 mult_b1_mult_15_n87
*1020 mult_b1_mult_15_n86
*1021 mult_b1_mult_15_n85
*1022 mult_b1_mult_15_n84
*1023 mult_b1_mult_15_n83
*1024 mult_b1_mult_15_n82
*1025 mult_b1_mult_15_n81
*1026 mult_b1_mult_15_n80
*1027 mult_b1_mult_15_n79
*1028 mult_b1_mult_15_n78
*1029 mult_b1_mult_15_n77
*1030 mult_b1_mult_15_n76
*1031 mult_b1_mult_15_n75
*1032 mult_b1_mult_15_n73
*1033 mult_b1_mult_15_n72
*1034 mult_b1_mult_15_n71
*1035 mult_b1_mult_15_n70
*1036 mult_b1_mult_15_n69
*1037 mult_b1_mult_15_n68
*1038 mult_b1_mult_15_n67
*1039 mult_b1_mult_15_n66
*1040 mult_b1_mult_15_n65
*1041 mult_b1_mult_15_n64
*1042 mult_b1_mult_15_n63
*1043 mult_b1_mult_15_n62
*1044 mult_b1_mult_15_n61
*1045 mult_b1_mult_15_n60
*1046 mult_b1_mult_15_n59
*1047 mult_b1_mult_15_n58
*1048 mult_b1_mult_15_n57
*1049 mult_b1_mult_15_n55
*1050 mult_b1_mult_15_n54
*1051 mult_b1_mult_15_n53
*1052 mult_b1_mult_15_n52
*1053 mult_b1_mult_15_n51
*1054 mult_b1_mult_15_n50
*1055 mult_b1_mult_15_n49
*1056 mult_b1_mult_15_n48
*1057 mult_b1_mult_15_n47
*1058 mult_b1_mult_15_n46
*1059 mult_b1_mult_15_n45
*1060 mult_b1_mult_15_n44
*1061 mult_b1_mult_15_n43
*1062 mult_b1_mult_15_n41
*1063 mult_b1_mult_15_n40
*1064 mult_b1_mult_15_n39
*1065 mult_b1_mult_15_n38
*1066 mult_b1_mult_15_n37
*1067 mult_b1_mult_15_n36
*1068 mult_b1_mult_15_n35
*1069 mult_b1_mult_15_n34
*1070 mult_b1_mult_15_n33
*1071 mult_b1_mult_15_n31
*1072 mult_b1_mult_15_n30
*1073 mult_b1_mult_15_n29
*1074 mult_b1_mult_15_n28
*1075 mult_b1_mult_15_n27
*1076 mult_b1_mult_15_n17
*1077 mult_b1_mult_15_n16
*1078 mult_b1_mult_15_n15
*1079 mult_b1_mult_15_n14
*1080 mult_b1_mult_15_n13
*1081 mult_b1_mult_15_n12
*1082 mult_b1_mult_15_n11
*1083 mult_b1_mult_15_n10
*1084 mult_b1_mult_15_n9
*1085 mult_b1_mult_15_n8
*1086 mult_b1_mult_15_n7
*1087 mult_b1_mult_15_n6
*1088 mult_b1_mult_15_n5
*1089 mult_b2_R_0_
*1090 mult_b2_R_23_
*1091 mult_b2_mult_15_n552
*1092 mult_b2_mult_15_n551
*1093 mult_b2_mult_15_n550
*1094 mult_b2_mult_15_n549
*1095 mult_b2_mult_15_n548
*1096 mult_b2_mult_15_n547
*1097 mult_b2_mult_15_n546
*1098 mult_b2_mult_15_n545
*1099 mult_b2_mult_15_n544
*1100 mult_b2_mult_15_n543
*1101 mult_b2_mult_15_n542
*1102 mult_b2_mult_15_n541
*1103 mult_b2_mult_15_n540
*1104 mult_b2_mult_15_n539
*1105 mult_b2_mult_15_n538
*1106 mult_b2_mult_15_n537
*1107 mult_b2_mult_15_n536
*1108 mult_b2_mult_15_n535
*1109 mult_b2_mult_15_n534
*1110 mult_b2_mult_15_n533
*1111 mult_b2_mult_15_n532
*1112 mult_b2_mult_15_n531
*1113 mult_b2_mult_15_n530
*1114 mult_b2_mult_15_n529
*1115 mult_b2_mult_15_n528
*1116 mult_b2_mult_15_n527
*1117 mult_b2_mult_15_n526
*1118 mult_b2_mult_15_n525
*1119 mult_b2_mult_15_n524
*1120 mult_b2_mult_15_n523
*1121 mult_b2_mult_15_n522
*1122 mult_b2_mult_15_n521
*1123 mult_b2_mult_15_n520
*1124 mult_b2_mult_15_n519
*1125 mult_b2_mult_15_n518
*1126 mult_b2_mult_15_n517
*1127 mult_b2_mult_15_n516
*1128 mult_b2_mult_15_n515
*1129 mult_b2_mult_15_n514
*1130 mult_b2_mult_15_n513
*1131 mult_b2_mult_15_n512
*1132 mult_b2_mult_15_n511
*1133 mult_b2_mult_15_n510
*1134 mult_b2_mult_15_n509
*1135 mult_b2_mult_15_n508
*1136 mult_b2_mult_15_n507
*1137 mult_b2_mult_15_n506
*1138 mult_b2_mult_15_n505
*1139 mult_b2_mult_15_n504
*1140 mult_b2_mult_15_n503
*1141 mult_b2_mult_15_n502
*1142 mult_b2_mult_15_n501
*1143 mult_b2_mult_15_n500
*1144 mult_b2_mult_15_n499
*1145 mult_b2_mult_15_n498
*1146 mult_b2_mult_15_n497
*1147 mult_b2_mult_15_n496
*1148 mult_b2_mult_15_n495
*1149 mult_b2_mult_15_n494
*1150 mult_b2_mult_15_n493
*1151 mult_b2_mult_15_n492
*1152 mult_b2_mult_15_n491
*1153 mult_b2_mult_15_n490
*1154 mult_b2_mult_15_n489
*1155 mult_b2_mult_15_n488
*1156 mult_b2_mult_15_n487
*1157 mult_b2_mult_15_n486
*1158 mult_b2_mult_15_n485
*1159 mult_b2_mult_15_n484
*1160 mult_b2_mult_15_n483
*1161 mult_b2_mult_15_n482
*1162 mult_b2_mult_15_n481
*1163 mult_b2_mult_15_n480
*1164 mult_b2_mult_15_n479
*1165 mult_b2_mult_15_n478
*1166 mult_b2_mult_15_n477
*1167 mult_b2_mult_15_n476
*1168 mult_b2_mult_15_n475
*1169 mult_b2_mult_15_n474
*1170 mult_b2_mult_15_n473
*1171 mult_b2_mult_15_n472
*1172 mult_b2_mult_15_n471
*1173 mult_b2_mult_15_n470
*1174 mult_b2_mult_15_n469
*1175 mult_b2_mult_15_n468
*1176 mult_b2_mult_15_n467
*1177 mult_b2_mult_15_n466
*1178 mult_b2_mult_15_n465
*1179 mult_b2_mult_15_n464
*1180 mult_b2_mult_15_n463
*1181 mult_b2_mult_15_n462
*1182 mult_b2_mult_15_n461
*1183 mult_b2_mult_15_n460
*1184 mult_b2_mult_15_n459
*1185 mult_b2_mult_15_n458
*1186 mult_b2_mult_15_n457
*1187 mult_b2_mult_15_n456
*1188 mult_b2_mult_15_n455
*1189 mult_b2_mult_15_n454
*1190 mult_b2_mult_15_n453
*1191 mult_b2_mult_15_n452
*1192 mult_b2_mult_15_n451
*1193 mult_b2_mult_15_n450
*1194 mult_b2_mult_15_n449
*1195 mult_b2_mult_15_n448
*1196 mult_b2_mult_15_n447
*1197 mult_b2_mult_15_n446
*1198 mult_b2_mult_15_n445
*1199 mult_b2_mult_15_n444
*1200 mult_b2_mult_15_n443
*1201 mult_b2_mult_15_n442
*1202 mult_b2_mult_15_n441
*1203 mult_b2_mult_15_n440
*1204 mult_b2_mult_15_n439
*1205 mult_b2_mult_15_n438
*1206 mult_b2_mult_15_n437
*1207 mult_b2_mult_15_n436
*1208 mult_b2_mult_15_n435