*SPEF "IEEE 1481-1998"
*DESIGN "IIR_filter"
*DATE "Fri Oct 30 11:48:30 2020"
*VENDOR "Cadence Design Systems, Inc."
*PROGRAM "Innovus"
*VERSION "17.11-s080_1"
*DESIGN_FLOW "COUPLING C" "PIN_CAP NONE" "NAME_SCOPE LOCAL"
*DIVIDER /
*DELIMITER :
*BUS_DELIMITER []
*T_UNIT 1 NS
*C_UNIT 1 PF
*R_UNIT 1 OHM
*L_UNIT 1 HENRY

// MMMC spef file for corner 'my_rc'

*NAME_MAP

*1 FE_OFN5_reg_out_3
*2 FE_OFN4_reg_out_11
*3 FE_OFN3_reg_out_9
*4 FE_OFN2_reg_out_5
*5 FE_OFN1_reg_out_1
*6 FE_OFN0_reg_out_7
*7 FE_DBTN5_reg_out_0
*8 FE_DBTN4_reg_out_11
*9 FE_DBTN3_reg_out_9
*10 FE_DBTN2_reg_out_7
*11 FE_DBTN1_reg_out_5
*12 FE_DBTN0_reg_out_3
*13 DIN[9]
*14 DIN[8]
*15 DIN[7]
*16 DIN[6]
*17 DIN[5]
*18 DIN[4]
*19 DIN[3]
*20 DIN[2]
*21 DIN[1]
*22 DIN[0]
*23 a0[9]
*24 a0[8]
*25 a0[7]
*26 a0[6]
*27 a0[5]
*28 a0[4]
*29 a0[3]
*30 a0[2]
*31 a0[1]
*32 a0[0]
*33 a1[9]
*34 a1[8]
*35 a1[7]
*36 a1[6]
*37 a1[5]
*38 a1[4]
*39 a1[3]
*40 a1[2]
*41 a1[1]
*42 a1[0]
*43 b0[9]
*44 b0[8]
*45 b0[7]
*46 b0[6]
*47 b0[5]
*48 b0[4]
*49 b0[3]
*50 b0[2]
*51 b0[1]
*52 b0[0]
*53 b1[9]
*54 b1[8]
*55 b1[7]
*56 b1[6]
*57 b1[5]
*58 b1[4]
*59 b1[3]
*60 b1[2]
*61 b1[1]
*62 b1[0]
*63 DOUT[9]
*64 DOUT[8]
*65 DOUT[7]
*66 DOUT[6]
*67 DOUT[5]
*68 DOUT[4]
*69 DOUT[3]
*70 DOUT[2]
*71 DOUT[1]
*72 DOUT[0]
*73 CLK
*74 RST_n
*75 VIN
*76 VOUT
*77 VIN_samp
*78 n3
*79 DIN_reg_n12
*80 DIN_reg_n11
*81 DIN_reg_n10
*82 DIN_reg_n9
*83 DIN_reg_n8
*84 DIN_reg_n7
*85 DIN_reg_n6
*86 DIN_reg_n5
*87 DIN_reg_n4
*88 DIN_reg_n3
*89 DIN_reg_n2
*90 DIN_reg_n1
*91 DIN_reg_n26
*92 DIN_reg_n24
*93 DIN_reg_n22
*94 DIN_reg_n20
*95 DIN_reg_n18
*96 DIN_reg_n16
*97 DIN_reg_n14
*98 DIN_reg_n13
*99 VIN_reg_n4
*100 VIN_reg_n3
*101 VIN_reg_n1
*102 reg0_n40
*103 reg0_n39
*104 reg0_n38
*105 reg0_n37
*106 reg0_n36
*107 reg0_n35
*108 reg0_n34
*109 reg0_n33
*110 reg0_n32
*111 reg0_n31
*112 reg0_n30
*113 reg0_n29
*114 reg0_n28
*115 reg0_n27
*116 reg0_n12
*117 reg0_n11
*118 reg0_n10
*119 reg0_n9
*120 reg0_n8
*121 reg0_n7
*122 reg0_n6
*123 reg0_n5
*124 reg0_n4
*125 reg0_n3
*126 reg0_n2
*127 reg0_n1
*128 mult_b0_R_0_
*129 mult_b0_R_23_
*130 mult_b0_mult_15_n551
*131 mult_b0_mult_15_n550
*132 mult_b0_mult_15_n549
*133 mult_b0_mult_15_n548
*134 mult_b0_mult_15_n547
*135 mult_b0_mult_15_n546
*136 mult_b0_mult_15_n545
*137 mult_b0_mult_15_n544
*138 mult_b0_mult_15_n543
*139 mult_b0_mult_15_n542
*140 mult_b0_mult_15_n541
*141 mult_b0_mult_15_n540
*142 mult_b0_mult_15_n539
*143 mult_b0_mult_15_n538
*144 mult_b0_mult_15_n537
*145 mult_b0_mult_15_n536
*146 mult_b0_mult_15_n535
*147 mult_b0_mult_15_n534
*148 mult_b0_mult_15_n533
*149 mult_b0_mult_15_n532
*150 mult_b0_mult_15_n531
*151 mult_b0_mult_15_n530
*152 mult_b0_mult_15_n529
*153 mult_b0_mult_15_n528
*154 mult_b0_mult_15_n527
*155 mult_b0_mult_15_n526
*156 mult_b0_mult_15_n525
*157 mult_b0_mult_15_n524
*158 mult_b0_mult_15_n523
*159 mult_b0_mult_15_n522
*160 mult_b0_mult_15_n521
*161 mult_b0_mult_15_n520
*162 mult_b0_mult_15_n519
*163 mult_b0_mult_15_n518
*164 mult_b0_mult_15_n517
*165 mult_b0_mult_15_n516
*166 mult_b0_mult_15_n515
*167 mult_b0_mult_15_n514
*168 mult_b0_mult_15_n513
*169 mult_b0_mult_15_n512
*170 mult_b0_mult_15_n511
*171 mult_b0_mult_15_n510
*172 mult_b0_mult_15_n509
*173 mult_b0_mult_15_n508
*174 mult_b0_mult_15_n507
*175 mult_b0_mult_15_n506
*176 mult_b0_mult_15_n505
*177 mult_b0_mult_15_n504
*178 mult_b0_mult_15_n503
*179 mult_b0_mult_15_n502
*180 mult_b0_mult_15_n501
*181 mult_b0_mult_15_n500
*182 mult_b0_mult_15_n499
*183 mult_b0_mult_15_n498
*184 mult_b0_mult_15_n497
*185 mult_b0_mult_15_n496
*186 mult_b0_mult_15_n495
*187 mult_b0_mult_15_n494
*188 mult_b0_mult_15_n493
*189 mult_b0_mult_15_n492
*190 mult_b0_mult_15_n491
*191 mult_b0_mult_15_n490
*192 mult_b0_mult_15_n489
*193 mult_b0_mult_15_n488
*194 mult_b0_mult_15_n487
*195 mult_b0_mult_15_n486
*196 mult_b0_mult_15_n485
*197 mult_b0_mult_15_n484
*198 mult_b0_mult_15_n483
*199 mult_b0_mult_15_n482
*200 mult_b0_mult_15_n481
*201 mult_b0_mult_15_n480
*202 mult_b0_mult_15_n479
*203 mult_b0_mult_15_n478
*204 mult_b0_mult_15_n477
*205 mult_b0_mult_15_n476
*206 mult_b0_mult_15_n475
*207 mult_b0_mult_15_n474
*208 mult_b0_mult_15_n473
*209 mult_b0_mult_15_n472
*210 mult_b0_mult_15_n471
*211 mult_b0_mult_15_n470
*212 mult_b0_mult_15_n469
*213 mult_b0_mult_15_n468
*214 mult_b0_mult_15_n467
*215 mult_b0_mult_15_n466
*216 mult_b0_mult_15_n465
*217 mult_b0_mult_15_n464
*218 mult_b0_mult_15_n463
*219 mult_b0_mult_15_n462
*220 mult_b0_mult_15_n461
*221 mult_b0_mult_15_n460
*222 mult_b0_mult_15_n459
*223 mult_b0_mult_15_n458
*224 mult_b0_mult_15_n457
*225 mult_b0_mult_15_n456
*226 mult_b0_mult_15_n455
*227 mult_b0_mult_15_n454
*228 mult_b0_mult_15_n453
*229 mult_b0_mult_15_n452
*230 mult_b0_mult_15_n451
*231 mult_b0_mult_15_n450
*232 mult_b0_mult_15_n449
*233 mult_b0_mult_15_n448
*234 mult_b0_mult_15_n447
*235 mult_b0_mult_15_n446
*236 mult_b0_mult_15_n445
*237 mult_b0_mult_15_n444
*238 mult_b0_mult_15_n443
*239 mult_b0_mult_15_n442
*240 mult_b0_mult_15_n441
*241 mult_b0_mult_15_n440
*242 mult_b0_mult_15_n439
*243 mult_b0_mult_15_n438
*244 mult_b0_mult_15_n437
*245 mult_b0_mult_15_n436
*246 mult_b0_mult_15_n435
*247 mult_b0_mult_15_n434
*248 mult_b0_mult_15_n433
*249 mult_b0_mult_15_n432
*250 mult_b0_mult_15_n431
*251 mult_b0_mult_15_n430
*252 mult_b0_mult_15_n429
*253 mult_b0_mult_15_n428
*254 mult_b0_mult_15_n427
*255 mult_b0_mult_15_n426
*256 mult_b0_mult_15_n425
*257 mult_b0_mult_15_n424
*258 mult_b0_mult_15_n423
*259 mult_b0_mult_15_n422
*260 mult_b0_mult_15_n421
*261 mult_b0_mult_15_n420
*262 mult_b0_mult_15_n419
*263 mult_b0_mult_15_n418
*264 mult_b0_mult_15_n417
*265 mult_b0_mult_15_n416
*266 mult_b0_mult_15_n415
*267 mult_b0_mult_15_n414
*268 mult_b0_mult_15_n228
*269 mult_b0_mult_15_n227
*270 mult_b0_mult_15_n226
*271 mult_b0_mult_15_n225
*272 mult_b0_mult_15_n224
*273 mult_b0_mult_15_n223
*274 mult_b0_mult_15_n222
*275 mult_b0_mult_15_n221
*276 mult_b0_mult_15_n220
*277 mult_b0_mult_15_n217
*278 mult_b0_mult_15_n216
*279 mult_b0_mult_15_n215
*280 mult_b0_mult_15_n214
*281 mult_b0_mult_15_n213
*282 mult_b0_mult_15_n212
*283 mult_b0_mult_15_n211
*284 mult_b0_mult_15_n210
*285 mult_b0_mult_15_n209
*286 mult_b0_mult_15_n208
*287 mult_b0_mult_15_n206
*288 mult_b0_mult_15_n205
*289 mult_b0_mult_15_n204
*290 mult_b0_mult_15_n203
*291 mult_b0_mult_15_n202
*292 mult_b0_mult_15_n201
*293 mult_b0_mult_15_n200
*294 mult_b0_mult_15_n199
*295 mult_b0_mult_15_n197
*296 mult_b0_mult_15_n196
*297 mult_b0_mult_15_n194
*298 mult_b0_mult_15_n193
*299 mult_b0_mult_15_n192
*300 mult_b0_mult_15_n191
*301 mult_b0_mult_15_n190
*302 mult_b0_mult_15_n189
*303 mult_b0_mult_15_n188
*304 mult_b0_mult_15_n187
*305 mult_b0_mult_15_n186
*306 mult_b0_mult_15_n185
*307 mult_b0_mult_15_n184
*308 mult_b0_mult_15_n182
*309 mult_b0_mult_15_n181
*310 mult_b0_mult_15_n180
*311 mult_b0_mult_15_n179
*312 mult_b0_mult_15_n177
*313 mult_b0_mult_15_n176
*314 mult_b0_mult_15_n175
*315 mult_b0_mult_15_n174
*316 mult_b0_mult_15_n173
*317 mult_b0_mult_15_n172
*318 mult_b0_mult_15_n170
*319 mult_b0_mult_15_n169
*320 mult_b0_mult_15_n168
*321 mult_b0_mult_15_n167
*322 mult_b0_mult_15_n166
*323 mult_b0_mult_15_n165
*324 mult_b0_mult_15_n164
*325 mult_b0_mult_15_n163
*326 mult_b0_mult_15_n162
*327 mult_b0_mult_15_n161
*328 mult_b0_mult_15_n160
*329 mult_b0_mult_15_n156
*330 mult_b0_mult_15_n155
*331 mult_b0_mult_15_n154
*332 mult_b0_mult_15_n153
*333 mult_b0_mult_15_n134
*334 mult_b0_mult_15_n133
*335 mult_b0_mult_15_n132
*336 mult_b0_mult_15_n131
*337 mult_b0_mult_15_n130
*338 mult_b0_mult_15_n129
*339 mult_b0_mult_15_n128
*340 mult_b0_mult_15_n127
*341 mult_b0_mult_15_n126
*342 mult_b0_mult_15_n125
*343 mult_b0_mult_15_n124
*344 mult_b0_mult_15_n123
*345 mult_b0_mult_15_n122
*346 mult_b0_mult_15_n121
*347 mult_b0_mult_15_n120
*348 mult_b0_mult_15_n119
*349 mult_b0_mult_15_n118
*350 mult_b0_mult_15_n117
*351 mult_b0_mult_15_n116
*352 mult_b0_mult_15_n115
*353 mult_b0_mult_15_n114
*354 mult_b0_mult_15_n113
*355 mult_b0_mult_15_n112
*356 mult_b0_mult_15_n111
*357 mult_b0_mult_15_n110
*358 mult_b0_mult_15_n109
*359 mult_b0_mult_15_n108
*360 mult_b0_mult_15_n107
*361 mult_b0_mult_15_n106
*362 mult_b0_mult_15_n105
*363 mult_b0_mult_15_n104
*364 mult_b0_mult_15_n103
*365 mult_b0_mult_15_n102
*366 mult_b0_mult_15_n101
*367 mult_b0_mult_15_n100
*368 mult_b0_mult_15_n99
*369 mult_b0_mult_15_n98
*370 mult_b0_mult_15_n97
*371 mult_b0_mult_15_n96
*372 mult_b0_mult_15_n95
*373 mult_b0_mult_15_n94
*374 mult_b0_mult_15_n93
*375 mult_b0_mult_15_n92
*376 mult_b0_mult_15_n91
*377 mult_b0_mult_15_n90
*378 mult_b0_mult_15_n89
*379 mult_b0_mult_15_n88
*380 mult_b0_mult_15_n87
*381 mult_b0_mult_15_n86
*382 mult_b0_mult_15_n85
*383 mult_b0_mult_15_n84
*384 mult_b0_mult_15_n83
*385 mult_b0_mult_15_n82
*386 mult_b0_mult_15_n81
*387 mult_b0_mult_15_n80
*388 mult_b0_mult_15_n79
*389 mult_b0_mult_15_n78
*390 mult_b0_mult_15_n77
*391 mult_b0_mult_15_n76
*392 mult_b0_mult_15_n75
*393 mult_b0_mult_15_n73
*394 mult_b0_mult_15_n72
*395 mult_b0_mult_15_n71
*396 mult_b0_mult_15_n70
*397 mult_b0_mult_15_n69
*398 mult_b0_mult_15_n68
*399 mult_b0_mult_15_n67
*400 mult_b0_mult_15_n66
*401 mult_b0_mult_15_n65
*402 mult_b0_mult_15_n64
*403 mult_b0_mult_15_n63
*404 mult_b0_mult_15_n62
*405 mult_b0_mult_15_n61
*406 mult_b0_mult_15_n60
*407 mult_b0_mult_15_n59
*408 mult_b0_mult_15_n58
*409 mult_b0_mult_15_n57
*410 mult_b0_mult_15_n55
*411 mult_b0_mult_15_n54
*412 mult_b0_mult_15_n53
*413 mult_b0_mult_15_n52
*414 mult_b0_mult_15_n51
*415 mult_b0_mult_15_n50
*416 mult_b0_mult_15_n49
*417 mult_b0_mult_15_n48
*418 mult_b0_mult_15_n47
*419 mult_b0_mult_15_n46
*420 mult_b0_mult_15_n45
*421 mult_b0_mult_15_n44
*422 mult_b0_mult_15_n43
*423 mult_b0_mult_15_n41
*424 mult_b0_mult_15_n40
*425 mult_b0_mult_15_n39
*426 mult_b0_mult_15_n38
*427 mult_b0_mult_15_n37
*428 mult_b0_mult_15_n36
*429 mult_b0_mult_15_n35
*430 mult_b0_mult_15_n34
*431 mult_b0_mult_15_n33
*432 mult_b0_mult_15_n31
*433 mult_b0_mult_15_n30
*434 mult_b0_mult_15_n29
*435 mult_b0_mult_15_n28
*436 mult_b0_mult_15_n27
*437 mult_b0_mult_15_n17
*438 mult_b0_mult_15_n16
*439 mult_b0_mult_15_n15
*440 mult_b0_mult_15_n14
*441 mult_b0_mult_15_n13
*442 mult_b0_mult_15_n12
*443 mult_b0_mult_15_n11
*444 mult_b0_mult_15_n10
*445 mult_b0_mult_15_n9
*446 mult_b0_mult_15_n8
*447 mult_b0_mult_15_n7
*448 mult_b0_mult_15_n6
*449 mult_b0_mult_15_n5
*450 mult_b1_R_0_
*451 mult_b1_R_23_
*452 mult_b1_mult_15_n553
*453 mult_b1_mult_15_n552
*454 mult_b1_mult_15_n551
*455 mult_b1_mult_15_n550
*456 mult_b1_mult_15_n549
*457 mult_b1_mult_15_n548
*458 mult_b1_mult_15_n547
*459 mult_b1_mult_15_n546
*460 mult_b1_mult_15_n545
*461 mult_b1_mult_15_n544
*462 mult_b1_mult_15_n543
*463 mult_b1_mult_15_n542
*464 mult_b1_mult_15_n541
*465 mult_b1_mult_15_n540
*466 mult_b1_mult_15_n539
*467 mult_b1_mult_15_n538
*468 mult_b1_mult_15_n537
*469 mult_b1_mult_15_n536
*470 mult_b1_mult_15_n535
*471 mult_b1_mult_15_n534
*472 mult_b1_mult_15_n533
*473 mult_b1_mult_15_n532
*474 mult_b1_mult_15_n531
*475 mult_b1_mult_15_n530
*476 mult_b1_mult_15_n529
*477 mult_b1_mult_15_n528
*478 mult_b1_mult_15_n527
*479 mult_b1_mult_15_n526
*480 mult_b1_mult_15_n525
*481 mult_b1_mult_15_n524
*482 mult_b1_mult_15_n523
*483 mult_b1_mult_15_n522
*484 mult_b1_mult_15_n521
*485 mult_b1_mult_15_n520
*486 mult_b1_mult_15_n519
*487 mult_b1_mult_15_n518
*488 mult_b1_mult_15_n517
*489 mult_b1_mult_15_n516
*490 mult_b1_mult_15_n515
*491 mult_b1_mult_15_n514
*492 mult_b1_mult_15_n513
*493 mult_b1_mult_15_n512
*494 mult_b1_mult_15_n511
*495 mult_b1_mult_15_n510
*496 mult_b1_mult_15_n509
*497 mult_b1_mult_15_n508
*498 mult_b1_mult_15_n507
*499 mult_b1_mult_15_n506
*500 mult_b1_mult_15_n505
*501 mult_b1_mult_15_n504
*502 mult_b1_mult_15_n503
*503 mult_b1_mult_15_n502
*504 mult_b1_mult_15_n501
*505 mult_b1_mult_15_n500
*506 mult_b1_mult_15_n499
*507 mult_b1_mult_15_n498
*508 mult_b1_mult_15_n497
*509 mult_b1_mult_15_n496
*510 mult_b1_mult_15_n495
*511 mult_b1_mult_15_n494
*512 mult_b1_mult_15_n493
*513 mult_b1_mult_15_n492
*514 mult_b1_mult_15_n491
*515 mult_b1_mult_15_n490
*516 mult_b1_mult_15_n489
*517 mult_b1_mult_15_n488
*518 mult_b1_mult_15_n487
*519 mult_b1_mult_15_n486
*520 mult_b1_mult_15_n485
*521 mult_b1_mult_15_n484
*522 mult_b1_mult_15_n483
*523 mult_b1_mult_15_n482
*524 mult_b1_mult_15_n481
*525 mult_b1_mult_15_n480
*526 mult_b1_mult_15_n479
*527 mult_b1_mult_15_n478
*528 mult_b1_mult_15_n477
*529 mult_b1_mult_15_n476
*530 mult_b1_mult_15_n475
*531 mult_b1_mult_15_n474
*532 mult_b1_mult_15_n473
*533 mult_b1_mult_15_n472
*534 mult_b1_mult_15_n471
*535 mult_b1_mult_15_n470
*536 mult_b1_mult_15_n469
*537 mult_b1_mult_15_n468
*538 mult_b1_mult_15_n467
*539 mult_b1_mult_15_n466
*540 mult_b1_mult_15_n465
*541 mult_b1_mult_15_n464
*542 mult_b1_mult_15_n463
*543 mult_b1_mult_15_n462
*544 mult_b1_mult_15_n461
*545 mult_b1_mult_15_n460
*546 mult_b1_mult_15_n459
*547 mult_b1_mult_15_n458
*548 mult_b1_mult_15_n457
*549 mult_b1_mult_15_n456
*550 mult_b1_mult_15_n455
*551 mult_b1_mult_15_n454
*552 mult_b1_mult_15_n453
*553 mult_b1_mult_15_n452
*554 mult_b1_mult_15_n451
*555 mult_b1_mult_15_n450
*556 mult_b1_mult_15_n449
*557 mult_b1_mult_15_n448
*558 mult_b1_mult_15_n447
*559 mult_b1_mult_15_n446
*560 mult_b1_mult_15_n445
*561 mult_b1_mult_15_n444
*562 mult_b1_mult_15_n443
*563 mult_b1_mult_15_n442
*564 mult_b1_mult_15_n441
*565 mult_b1_mult_15_n440
*566 mult_b1_mult_15_n438
*567 mult_b1_mult_15_n437
*568 mult_b1_mult_15_n436
*569 mult_b1_mult_15_n435
*570 mult_b1_mult_15_n434
*571 mult_b1_mult_15_n433
*572 mult_b1_mult_15_n432
*573 mult_b1_mult_15_n431
*574 mult_b1_mult_15_n430
*575 mult_b1_mult_15_n429
*576 mult_b1_mult_15_n428
*577 mult_b1_mult_15_n427
*578 mult_b1_mult_15_n426
*579 mult_b1_mult_15_n425
*580 mult_b1_mult_15_n424
*581 mult_b1_mult_15_n423
*582 mult_b1_mult_15_n422
*583 mult_b1_mult_15_n421
*584 mult_b1_mult_15_n420
*585 mult_b1_mult_15_n228
*586 mult_b1_mult_15_n227
*587 mult_b1_mult_15_n226
*588 mult_b1_mult_15_n225
*589 mult_b1_mult_15_n224
*590 mult_b1_mult_15_n223
*591 mult_b1_mult_15_n222
*592 mult_b1_mult_15_n221
*593 mult_b1_mult_15_n220
*594 mult_b1_mult_15_n217
*595 mult_b1_mult_15_n216
*596 mult_b1_mult_15_n215
*597 mult_b1_mult_15_n214
*598 mult_b1_mult_15_n213
*599 mult_b1_mult_15_n212
*600 mult_b1_mult_15_n211
*601 mult_b1_mult_15_n210
*602 mult_b1_mult_15_n209
*603 mult_b1_mult_15_n208
*604 mult_b1_mult_15_n206
*605 mult_b1_mult_15_n205
*606 mult_b1_mult_15_n204
*607 mult_b1_mult_15_n203
*608 mult_b1_mult_15_n202
*609 mult_b1_mult_15_n201
*610 mult_b1_mult_15_n200
*611 mult_b1_mult_15_n199
*612 mult_b1_mult_15_n197
*613 mult_b1_mult_15_n196
*614 mult_b1_mult_15_n194
*615 mult_b1_mult_15_n193
*616 mult_b1_mult_15_n192
*617 mult_b1_mult_15_n191
*618 mult_b1_mult_15_n190
*619 mult_b1_mult_15_n189
*620 mult_b1_mult_15_n188
*621 mult_b1_mult_15_n187
*622 mult_b1_mult_15_n186
*623 mult_b1_mult_15_n185
*624 mult_b1_mult_15_n184
*625 mult_b1_mult_15_n182
*626 mult_b1_mult_15_n181
*627 mult_b1_mult_15_n180
*628 mult_b1_mult_15_n179
*629 mult_b1_mult_15_n177
*630 mult_b1_mult_15_n176
*631 mult_b1_mult_15_n175
*632 mult_b1_mult_15_n174
*633 mult_b1_mult_15_n173
*634 mult_b1_mult_15_n172
*635 mult_b1_mult_15_n170
*636 mult_b1_mult_15_n169
*637 mult_b1_mult_15_n168
*638 mult_b1_mult_15_n167
*639 mult_b1_mult_15_n166
*640 mult_b1_mult_15_n165
*641 mult_b1_mult_15_n164
*642 mult_b1_mult_15_n163
*643 mult_b1_mult_15_n162
*644 mult_b1_mult_15_n161
*645 mult_b1_mult_15_n160
*646 mult_b1_mult_15_n156
*647 mult_b1_mult_15_n155
*648 mult_b1_mult_15_n154
*649 mult_b1_mult_15_n153
*650 mult_b1_mult_15_n134
*651 mult_b1_mult_15_n133
*652 mult_b1_mult_15_n132
*653 mult_b1_mult_15_n131
*654 mult_b1_mult_15_n130
*655 mult_b1_mult_15_n129
*656 mult_b1_mult_15_n128
*657 mult_b1_mult_15_n127
*658 mult_b1_mult_15_n126
*659 mult_b1_mult_15_n125
*660 mult_b1_mult_15_n124
*661 mult_b1_mult_15_n123
*662 mult_b1_mult_15_n122
*663 mult_b1_mult_15_n121
*664 mult_b1_mult_15_n120
*665 mult_b1_mult_15_n119
*666 mult_b1_mult_15_n118
*667 mult_b1_mult_15_n117
*668 mult_b1_mult_15_n116
*669 mult_b1_mult_15_n115
*670 mult_b1_mult_15_n114
*671 mult_b1_mult_15_n113
*672 mult_b1_mult_15_n112
*673 mult_b1_mult_15_n111
*674 mult_b1_mult_15_n110
*675 mult_b1_mult_15_n109
*676 mult_b1_mult_15_n108
*677 mult_b1_mult_15_n107
*678 mult_b1_mult_15_n106
*679 mult_b1_mult_15_n105
*680 mult_b1_mult_15_n104
*681 mult_b1_mult_15_n103
*682 mult_b1_mult_15_n102
*683 mult_b1_mult_15_n101
*684 mult_b1_mult_15_n100
*685 mult_b1_mult_15_n99
*686 mult_b1_mult_15_n98
*687 mult_b1_mult_15_n97
*688 mult_b1_mult_15_n96
*689 mult_b1_mult_15_n95
*690 mult_b1_mult_15_n94
*691 mult_b1_mult_15_n93
*692 mult_b1_mult_15_n92
*693 mult_b1_mult_15_n91
*694 mult_b1_mult_15_n90
*695 mult_b1_mult_15_n89
*696 mult_b1_mult_15_n88
*697 mult_b1_mult_15_n87
*698 mult_b1_mult_15_n86
*699 mult_b1_mult_15_n85
*700 mult_b1_mult_15_n84
*701 mult_b1_mult_15_n83
*702 mult_b1_mult_15_n82
*703 mult_b1_mult_15_n81
*704 mult_b1_mult_15_n80
*705 mult_b1_mult_15_n79
*706 mult_b1_mult_15_n78
*707 mult_b1_mult_15_n77
*708 mult_b1_mult_15_n76
*709 mult_b1_mult_15_n75
*710 mult_b1_mult_15_n73
*711 mult_b1_mult_15_n72
*712 mult_b1_mult_15_n71
*713 mult_b1_mult_15_n70
*714 mult_b1_mult_15_n69
*715 mult_b1_mult_15_n68
*716 mult_b1_mult_15_n67
*717 mult_b1_mult_15_n66
*718 mult_b1_mult_15_n65
*719 mult_b1_mult_15_n64
*720 mult_b1_mult_15_n63
*721 mult_b1_mult_15_n62
*722 mult_b1_mult_15_n61
*723 mult_b1_mult_15_n60
*724 mult_b1_mult_15_n59
*725 mult_b1_mult_15_n58
*726 mult_b1_mult_15_n57
*727 mult_b1_mult_15_n55
*728 mult_b1_mult_15_n54
*729 mult_b1_mult_15_n53
*730 mult_b1_mult_15_n52
*731 mult_b1_mult_15_n51
*732 mult_b1_mult_15_n50
*733 mult_b1_mult_15_n49
*734 mult_b1_mult_15_n48
*735 mult_b1_mult_15_n47
*736 mult_b1_mult_15_n46
*737 mult_b1_mult_15_n45
*738 mult_b1_mult_15_n44
*739 mult_b1_mult_15_n43
*740 mult_b1_mult_15_n41
*741 mult_b1_mult_15_n40
*742 mult_b1_mult_15_n39
*743 mult_b1_mult_15_n38
*744 mult_b1_mult_15_n37
*745 mult_b1_mult_15_n36
*746 mult_b1_mult_15_n35
*747 mult_b1_mult_15_n34
*748 mult_b1_mult_15_n33
*749 mult_b1_mult_15_n31
*750 mult_b1_mult_15_n30
*751 mult_b1_mult_15_n29
*752 mult_b1_mult_15_n28
*753 mult_b1_mult_15_n27
*754 mult_b1_mult_15_n17
*755 mult_b1_mult_15_n16
*756 mult_b1_mult_15_n15
*757 mult_b1_mult_15_n14
*758 mult_b1_mult_15_n13
*759 mult_b1_mult_15_n12
*760 mult_b1_mult_15_n11
*761 mult_b1_mult_15_n10
*762 mult_b1_mult_15_n9
*763 mult_b1_mult_15_n8
*764 mult_b1_mult_15_n7
*765 mult_b1_mult_15_n6
*766 mult_b1_mult_15_n5
*767 add_b0_add_16_n1
*768 mult_a0_R_0_
*769 mult_a0_R_23_
*770 mult_a0_mult_15_n557
*771 mult_a0_mult_15_n555
*772 mult_a0_mult_15_n553
*773 mult_a0_mult_15_n551
*774 mult_a0_mult_15_n550
*775 mult_a0_mult_15_n549
*776 mult_a0_mult_15_n548
*777 mult_a0_mult_15_n547
*778 mult_a0_mult_15_n546
*779 mult_a0_mult_15_n545
*780 mult_a0_mult_15_n544
*781 mult_a0_mult_15_n543
*782 mult_a0_mult_15_n542
*783 mult_a0_mult_15_n541
*784 mult_a0_mult_15_n540
*785 mult_a0_mult_15_n539
*786 mult_a0_mult_15_n538
*787 mult_a0_mult_15_n537
*788 mult_a0_mult_15_n535
*789 mult_a0_mult_15_n534
*790 mult_a0_mult_15_n533
*791 mult_a0_mult_15_n532
*792 mult_a0_mult_15_n531
*793 mult_a0_mult_15_n530
*794 mult_a0_mult_15_n529
*795 mult_a0_mult_15_n528
*796 mult_a0_mult_15_n527
*797 mult_a0_mult_15_n526
*798 mult_a0_mult_15_n525
*799 mult_a0_mult_15_n524
*800 mult_a0_mult_15_n523
*801 mult_a0_mult_15_n522
*802 mult_a0_mult_15_n521
*803 mult_a0_mult_15_n520
*804 mult_a0_mult_15_n519
*805 mult_a0_mult_15_n518
*806 mult_a0_mult_15_n517
*807 mult_a0_mult_15_n516
*808 mult_a0_mult_15_n515
*809 mult_a0_mult_15_n514
*810 mult_a0_mult_15_n513
*811 mult_a0_mult_15_n512
*812 mult_a0_mult_15_n511
*813 mult_a0_mult_15_n510
*814 mult_a0_mult_15_n509
*815 mult_a0_mult_15_n508
*816 mult_a0_mult_15_n507
*817 mult_a0_mult_15_n506
*818 mult_a0_mult_15_n505
*819 mult_a0_mult_15_n504
*820 mult_a0_mult_15_n503
*821 mult_a0_mult_15_n502
*822 mult_a0_mult_15_n501
*823 mult_a0_mult_15_n500
*824 mult_a0_mult_15_n499
*825 mult_a0_mult_15_n498
*826 mult_a0_mult_15_n497
*827 mult_a0_mult_15_n496
*828 mult_a0_mult_15_n495
*829 mult_a0_mult_15_n494
*830 mult_a0_mult_15_n493
*831 mult_a0_mult_15_n492
*832 mult_a0_mult_15_n491
*833 mult_a0_mult_15_n490
*834 mult_a0_mult_15_n489
*835 mult_a0_mult_15_n488
*836 mult_a0_mult_15_n487
*837 mult_a0_mult_15_n486
*838 mult_a0_mult_15_n485
*839 mult_a0_mult_15_n484
*840 mult_a0_mult_15_n483
*841 mult_a0_mult_15_n482
*842 mult_a0_mult_15_n481
*843 mult_a0_mult_15_n480
*844 mult_a0_mult_15_n479
*845 mult_a0_mult_15_n478
*846 mult_a0_mult_15_n477
*847 mult_a0_mult_15_n476
*848 mult_a0_mult_15_n475
*849 mult_a0_mult_15_n474
*850 mult_a0_mult_15_n473
*851 mult_a0_mult_15_n472
*852 mult_a0_mult_15_n471
*853 mult_a0_mult_15_n470
*854 mult_a0_mult_15_n469
*855 mult_a0_mult_15_n468
*856 mult_a0_mult_15_n467
*857 mult_a0_mult_15_n466
*858 mult_a0_mult_15_n465
*859 mult_a0_mult_15_n464
*860 mult_a0_mult_15_n463
*861 mult_a0_mult_15_n462
*862 mult_a0_mult_15_n461
*863 mult_a0_mult_15_n460
*864 mult_a0_mult_15_n459
*865 mult_a0_mult_15_n458
*866 mult_a0_mult_15_n457
*867 mult_a0_mult_15_n456
*868 mult_a0_mult_15_n455
*869 mult_a0_mult_15_n454
*870 mult_a0_mult_15_n453
*871 mult_a0_mult_15_n452
*872 mult_a0_mult_15_n451
*873 mult_a0_mult_15_n450
*874 mult_a0_mult_15_n449
*875 mult_a0_mult_15_n448
*876 mult_a0_mult_15_n447
*877 mult_a0_mult_15_n446
*878 mult_a0_mult_15_n445
*879 mult_a0_mult_15_n443
*880 mult_a0_mult_15_n442
*881 mult_a0_mult_15_n441
*882 mult_a0_mult_15_n440
*883 mult_a0_mult_15_n439
*884 mult_a0_mult_15_n438
*885 mult_a0_mult_15_n437
*886 mult_a0_mult_15_n436
*887 mult_a0_mult_15_n435
*888 mult_a0_mult_15_n434
*889 mult_a0_mult_15_n433
*890 mult_a0_mult_15_n432
*891 mult_a0_mult_15_n431
*892 mult_a0_mult_15_n430
*893 mult_a0_mult_15_n429
*894 mult_a0_mult_15_n428
*895 mult_a0_mult_15_n427
*896 mult_a0_mult_15_n426
*897 mult_a0_mult_15_n425
*898 mult_a0_mult_15_n228
*899 mult_a0_mult_15_n227
*900 mult_a0_mult_15_n226
*901 mult_a0_mult_15_n225
*902 mult_a0_mult_15_n224
*903 mult_a0_mult_15_n223
*904 mult_a0_mult_15_n222
*905 mult_a0_mult_15_n221
*906 mult_a0_mult_15_n220
*907 mult_a0_mult_15_n217
*908 mult_a0_mult_15_n216
*909 mult_a0_mult_15_n215
*910 mult_a0_mult_15_n214
*911 mult_a0_mult_15_n213
*912 mult_a0_mult_15_n212
*913 mult_a0_mult_15_n211
*914 mult_a0_mult_15_n210
*915 mult_a0_mult_15_n209
*916 mult_a0_mult_15_n208
*917 mult_a0_mult_15_n206
*918 mult_a0_mult_15_n205
*919 mult_a0_mult_15_n204
*920 mult_a0_mult_15_n203
*921 mult_a0_mult_15_n202
*922 mult_a0_mult_15_n201
*923 mult_a0_mult_15_n200
*924 mult_a0_mult_15_n199
*925 mult_a0_mult_15_n197
*926 mult_a0_mult_15_n196
*927 mult_a0_mult_15_n194
*928 mult_a0_mult_15_n193
*929 mult_a0_mult_15_n192
*930 mult_a0_mult_15_n191
*931 mult_a0_mult_15_n190
*932 mult_a0_mult_15_n189
*933 mult_a0_mult_15_n188
*934 mult_a0_mult_15_n187
*935 mult_a0_mult_15_n186
*936 mult_a0_mult_15_n185
*937 mult_a0_mult_15_n184
*938 mult_a0_mult_15_n182
*939 mult_a0_mult_15_n181
*940 mult_a0_mult_15_n180
*941 mult_a0_mult_15_n179
*942 mult_a0_mult_15_n177
*943 mult_a0_mult_15_n176
*944 mult_a0_mult_15_n175
*945 mult_a0_mult_15_n174
*946 mult_a0_mult_15_n173
*947 mult_a0_mult_15_n172
*948 mult_a0_mult_15_n170
*949 mult_a0_mult_15_n169
*950 mult_a0_mult_15_n168
*951 mult_a0_mult_15_n167
*952 mult_a0_mult_15_n166
*953 mult_a0_mult_15_n165
*954 mult_a0_mult_15_n164
*955 mult_a0_mult_15_n163
*956 mult_a0_mult_15_n162
*957 mult_a0_mult_15_n161
*958 mult_a0_mult_15_n160
*959 mult_a0_mult_15_n156
*960 mult_a0_mult_15_n155
*961 mult_a0_mult_15_n154
*962 mult_a0_mult_15_n153
*963 mult_a0_mult_15_n134
*964 mult_a0_mult_15_n133
*965 mult_a0_mult_15_n132
*966 mult_a0_mult_15_n131
*967 mult_a0_mult_15_n130
*968 mult_a0_mult_15_n129
*969 mult_a0_mult_15_n128
*970 mult_a0_mult_15_n127
*971 mult_a0_mult_15_n126
*972 mult_a0_mult_15_n125
*973 mult_a0_mult_15_n124
*974 mult_a0_mult_15_n123
*975 mult_a0_mult_15_n122
*976 mult_a0_mult_15_n121
*977 mult_a0_mult_15_n120
*978 mult_a0_mult_15_n119
*979 mult_a0_mult_15_n118
*980 mult_a0_mult_15_n117
*981 mult_a0_mult_15_n116
*982 mult_a0_mult_15_n115
*983 mult_a0_mult_15_n114
*984 mult_a0_mult_15_n113
*985 mult_a0_mult_15_n112
*986 mult_a0_mult_15_n111
*987 mult_a0_mult_15_n110
*988 mult_a0_mult_15_n109
*989 mult_a0_mult_15_n108
*990 mult_a0_mult_15_n107
*991 mult_a0_mult_15_n106
*992 mult_a0_mult_15_n105
*993 mult_a0_mult_15_n104
*994 mult_a0_mult_15_n103
*995 mult_a0_mult_15_n102
*996 mult_a0_mult_15_n101
*997 mult_a0_mult_15_n100
*998 mult_a0_mult_15_n99
*999 mult_a0_mult_15_n98
*1000 mult_a0_mult_15_n97
*1001 mult_a0_mult_15_n96
*1002 mult_a0_mult_15_n95
*1003 mult_a0_mult_15_n94
*1004 mult_a0_mult_15_n93
*1005 mult_a0_mult_15_n92
*1006 mult_a0_mult_15_n91
*1007 mult_a0_mult_15_n90
*1008 mult_a0_mult_15_n89
*1009 mult_a0_mult_15_n88
*1010 mult_a0_mult_15_n87
*1011 mult_a0_mult_15_n86
*1012 mult_a0_mult_15_n85
*1013 mult_a0_mult_15_n84
*1014 mult_a0_mult_15_n83
*1015 mult_a0_mult_15_n82
*1016 mult_a0_mult_15_n81
*1017 mult_a0_mult_15_n80
*1018 mult_a0_mult_15_n79
*1019 mult_a0_mult_15_n78
*1020 mult_a0_mult_15_n77
*1021 mult_a0_mult_15_n76
*1022 mult_a0_mult_15_n75
*1023 mult_a0_mult_15_n73
*1024 mult_a0_mult_15_n72
*1025 mult_a0_mult_15_n71
*1026 mult_a0_mult_15_n70
*1027 mult_a0_mult_15_n69
*1028 mult_a0_mult_15_n68
*1029 mult_a0_mult_15_n67
*1030 mult_a0_mult_15_n66
*1031 mult_a0_mult_15_n65
*1032 mult_a0_mult_15_n64
*1033 mult_a0_mult_15_n63
*1034 mult_a0_mult_15_n62
*1035 mult_a0_mult_15_n61
*1036 mult_a0_mult_15_n60
*1037 mult_a0_mult_15_n59
*1038 mult_a0_mult_15_n58
*1039 mult_a0_mult_15_n57
*1040 mult_a0_mult_15_n55
*1041 mult_a0_mult_15_n54
*1042 mult_a0_mult_15_n53
*1043 mult_a0_mult_15_n52
*1044 mult_a0_mult_15_n51
*1045 mult_a0_mult_15_n50
*1046 mult_a0_mult_15_n49
*1047 mult_a0_mult_15_n48
*1048 mult_a0_mult_15_n47
*1049 mult_a0_mult_15_n46
*1050 mult_a0_mult_15_n45
*1051 mult_a0_mult_15_n44
*1052 mult_a0_mult_15_n43
*1053 mult_a0_mult_15_n41
*1054 mult_a0_mult_15_n40
*1055 mult_a0_mult_15_n39
*1056 mult_a0_mult_15_n38
*1057 mult_a0_mult_15_n37
*1058 mult_a0_mult_15_n36
*1059 mult_a0_mult_15_n35
*1060 mult_a0_mult_15_n34
*1061 mult_a0_mult_15_n33
*1062 mult_a0_mult_15_n31
*1063 mult_a0_mult_15_n30
*1064 mult_a0_mult_15_n29
*1065 mult_a0_mult_15_n28
*1066 mult_a0_mult_15_n27
*1067 mult_a0_mult_15_n17
*1068 mult_a0_mult_15_n16
*1069 mult_a0_mult_15_n15
*1070 mult_a0_mult_15_n14
*1071 mult_a0_mult_15_n13
*1072 mult_a0_mult_15_n12
*1073 mult_a0_mult_15_n11
*1074 mult_a0_mult_15_n10
*1075 mult_a0_mult_15_n9
*1076 mult_a0_mult_15_n8
*1077 mult_a0_mult_15_n7
*1078 mult_a0_mult_15_n6
*1079 mult_a0_mult_15_n5
*1080 add_a0_add_16_n1
*1081 count_n3
*1082 count_n2
*1083 count_n20
*1084 count_n19
*1085 count_n18
*1086 count_n16
*1087 count_n15
*1088 count_n14
*1089 count_n13
*1090 count_n11
*1091 count_n8
*1092 count_cnt_0_
*1093 count_cnt_1_
*1094 DOUT_reg_n10
*1095 DOUT_reg_n9
*1096 DOUT_reg_n8
*1097 DOUT_reg_n7
*1098 DOUT_reg_n6
*1099 DOUT_reg_n5
*1100 DOUT_reg_n4
*1101 DOUT_reg_n3
*1102 DOUT_reg_n2
*1103 DOUT_reg_n1
*1104 DOUT_reg_n22
*1105 DOUT_reg_n21
*1106 DOUT_reg_n20
*1107 DOUT_reg_n19
*1108 DOUT_reg_n18
*1109 DOUT_reg_n17
*1110 DOUT_reg_n16
*1111 DOUT_reg_n15
*1112 DOUT_reg_n14
*1113 DOUT_reg_n13
*1114 DOUT_reg_n12
*1115 DOUT_reg_n11
*1116 VOUT_reg_n6
*1117 VOUT_reg_n5
*1118 saturation_n13
*1119 saturation_n12
*1120 saturation_n11
*1121 saturation_n10
*1122 saturation_n9
*1123 saturation_n8
*1124 saturation_n7
*1125 saturation_n6
*1126 saturation_n5
*1127 saturation_n4
*1128 saturation_n3
*1129 saturation_n2
*1130 saturation_n1
*1131 saturation_n15
*1132 saturation_n14
*1133 DIN_samp[11]
*1134 DIN_samp[10]
*1135 DIN_samp[9]
*1136 DIN_samp[8]
*1137 DIN_samp[7]
*1138 DIN_samp[6]
*1139 DIN_samp[5]
*1140 DIN_samp[4]
*1141 DIN_samp[3]
*1142 DIN_samp[2]
*1143 DIN_samp[1]
*1144 DIN_samp[0]
*1145 sum_a0[11]
*1146 sum_a0[10]
*1147 sum_a0[9]
*1148 sum_a0[8]
*1149 sum_a0[7]
*1150 sum_a0[6]
*1151 sum_a0[5]
*1152 sum_a0[4]
*1153 sum_a0[3]
*1154 sum_a0[2]
*1155 sum_a0[1]
*1156 sum_a0[0]
*1157 reg_out[11]
*1158 reg_out[10]
*1159 reg_out[9]
*1160 reg_out[8]
*1161 reg_out[7]
*1162 reg_out[6]
*1163 reg_out[5]
*1164 reg_out[4]
*1165 reg_out[3]
*1166 reg_out[2]
*1167 reg_out[1]
*1168 reg_out[0]
*1169 prod_b0_2N[20]
*1170 prod_b0_2N[19]
*1171 prod_b0_2N[18]
*1172 prod_b0_2N[17]
*1173 prod_b0_2N[16]
*1174 prod_b0_2N[15]
*1175 prod_b0_2N[14]
*1176 prod_b0_2N[13]
*1177 prod_b0_2N[12]
*1178 prod_b0_2N[11]
*1179 prod_b0_2N[10]
*1180 prod_b0_2N[9]
*1181 prod_b1_2N[20]
*1182 prod_b1_2N[19]
*1183 prod_b1_2N[18]
*1184 prod_b1_2N[17]
*1185 prod_b1_2N[16]
*1186 prod_b1_2N[15]
*1187 prod_b1_2N[14]
*1188 prod_b1_2N[13]
*1189 prod_b1_2N[12]
*1190 prod_b1_2N[11]
*1191 prod_b1_2N[10]
*1192 prod_b1_2N[9]
*1193 sum_b0[10]
*1194 sum_b0[9]
*1195 sum_b0[8]
*1196 sum_b0[7]
*1197 sum_b0[6]
*1198 sum_b0[5]
*1199 sum_b0[4]
*1200 sum_b0[3]
*1201 sum_b0[2]
*1202 sum_b0[1]
*1203 sum_b0[0]
*1204 prod_a1_2N[20]
*1205 prod_a1_2N[19]
*1206 prod_a1_2N[18]
*1207 prod_a1_2N[17]
*1208 prod_a1_2N[16]
*1209 prod_a1_2N[15]
*1210 prod_a1_2N[14]
*1211 prod_a1_2N[13]
*1212 prod_a1_2N[12]
*1213 prod_a1_2N[11]
*1214 prod_a1_2N[10]
*1215 prod_a1_2N[9]
*1216 sat_out[9]
*1217 sat_out[8]
*1218 sat_out[7]
*1219 sat_out[6]
*1220 sat_out[5]
*1221 sat_out[4]
*1222 sat_out[3]
*1223 sat_out[2]
*1224 sat_out[1]
*1225 sat_out[0]
*1226 add_b0_add_16_carry[11]
*1227 add_b0_add_16_carry[10]
*1228 add_b0_add_16_carry[9]
*1229 add_b0_add_16_carry[8]
*1230 add_b0_add_16_carry[7]
*1231 add_b0_add_16_carry[6]
*1232 add_b0_add_16_carry[5]
*1233 add_b0_add_16_carry[4]
*1234 add_b0_add_16_carry[3]
*1235 add_b0_add_16_carry[2]
*1236 add_a0_add_16_carry[11]
*1237 add_a0_add_16_carry[10]
*1238 add_a0_add_16_carry[9]
*1239 add_a0_add_16_carry[8]
*1240 add_a0_add_16_carry[7]
*1241 add_a0_add_16_carry[6]
*1242 add_a0_add_16_carry[5]
*1243 add_a0_add_16_carry[4]
*1244 add_a0_add_16_carry[3]
*1245 add_a0_add_16_carry[2]
*1246 FE_RC_34_0
*1247 FE_RC_33_0
*1248 FE_RC_32_0
*1249 FE_RC_31_0
*1250 FE_RC_30_0
*1251 FE_RC_29_0
*1252 FE_RC_27_0
*1253 FE_RC_26_0
*1254 FE_RC_25_0